*Heading
** Job name: Moving_HF Model name: Model-1
** Generated by: Abaqus/CAE 2023
*Preprint, echo=NO, model=NO, history=NO, contact=NO
**
** PARTS
**
*Part, name=Part-1
*Node
      1, -0.0500000007, -0.100000001, 0.0199999996
      2, -0.0500000007, -0.0979999974, 0.0199999996
      3, -0.0500000007, -0.0960000008, 0.0199999996
      4, -0.0500000007, -0.0939999968, 0.0199999996
      5, -0.0500000007, -0.0920000002, 0.0199999996
      6, -0.0500000007, -0.0900000036, 0.0199999996
      7, -0.0500000007, -0.0879999995, 0.0199999996
      8, -0.0500000007, -0.0860000029, 0.0199999996
      9, -0.0500000007, -0.0839999989, 0.0199999996
     10, -0.0500000007, -0.0820000023, 0.0199999996
     11, -0.0500000007, -0.0799999982, 0.0199999996
     12, -0.0500000007, -0.0780000016, 0.0199999996
     13, -0.0500000007, -0.0759999976, 0.0199999996
     14, -0.0500000007, -0.074000001, 0.0199999996
     15, -0.0500000007, -0.0719999969, 0.0199999996
     16, -0.0500000007, -0.0700000003, 0.0199999996
     17, -0.0500000007, -0.0680000037, 0.0199999996
     18, -0.0500000007, -0.0659999996, 0.0199999996
     19, -0.0500000007, -0.064000003, 0.0199999996
     20, -0.0500000007, -0.061999999, 0.0199999996
** ... 28591 like lines cut
*Element, type=DC3D8
    1,   562,   563,   614,   613,     1,     2,    53,    52
    2,   563,   564,   615,   614,     2,     3,    54,    53
    3,   564,   565,   616,   615,     3,     4,    55,    54
    4,   565,   566,   617,   616,     4,     5,    56,    55
    5,   566,   567,   618,   617,     5,     6,    57,    56
    6,   567,   568,   619,   618,     6,     7,    58,    57
    7,   568,   569,   620,   619,     7,     8,    59,    58
    8,   569,   570,   621,   620,     8,     9,    60,    59
    9,   570,   571,   622,   621,     9,    10,    61,    60
   10,   571,   572,   623,   622,    10,    11,    62,    61
   11,   572,   573,   624,   623,    11,    12,    63,    62
   12,   573,   574,   625,   624,    12,    13,    64,    63
   13,   574,   575,   626,   625,    13,    14,    65,    64
   14,   575,   576,   627,   626,    14,    15,    66,    65
   15,   576,   577,   628,   627,    15,    16,    67,    66
   16,   577,   578,   629,   628,    16,    17,    68,    67
   17,   578,   579,   630,   629,    17,    18,    69,    68
   18,   579,   580,   631,   630,    18,    19,    70,    69
   19,   580,   581,   632,   631,    19,    20,    71,    70
   20,   581,   582,   633,   632,    20,    21,    72,    71
** ... 24980 like lines cut
*Nset, nset=Set-1, generate
     1,  28611,      1
*Elset, elset=Set-1, generate
     1,  25000,      1
** Section: AL
*Solid Section, elset=Set-1, material=AL
,
*End Part
**  
**
** ASSEMBLY
**
*Assembly, name=Assembly
**  
*Instance, name=Part-1-1, part=Part-1
*End Instance
**  
*Nset, nset=Set-1, instance=Part-1-1, generate
     1,  28611,      1
*Elset, elset=Set-1, instance=Part-1-1, generate
     1,  25000,      1
*Elset, elset=_Surf-1_S3, internal, instance=Part-1-1
     1,     2,     3,     4,     5,     6,     7,     8,     9,    10,    11,    12,    13,    14,    15,    16
    17,    18,    19,    20,    21,    22,    23,    24,    25,    26,    27,    28,    29,    30,    31,    32
    33,    34,    35,    36,    37,    38,    39,    40,    41,    42,    43,    44,    45,    46,    47,    48
    49,    50,   501,   502,   503,   504,   505,   506,   507,   508,   509,   510,   511,   512,   513,   514
   515,   516,   517,   518,   519,   520,   521,   522,   523,   524,   525,   526,   527,   528,   529,   530
   531,   532,   533,   534,   535,   536,   537,   538,   539,   540,   541,   542,   543,   544,   545,   546
   547,   548,   549,   550,  1001,  1002,  1003,  1004,  1005,  1006,  1007,  1008,  1009,  1010,  1011,  1012
  1013,  1014,  1015,  1016,  1017,  1018,  1019,  1020,  1021,  1022,  1023,  1024,  1025,  1026,  1027,  1028
  1029,  1030,  1031,  1032,  1033,  1034,  1035,  1036,  1037,  1038,  1039,  1040,  1041,  1042,  1043,  1044
  1045,  1046,  1047,  1048,  1049,  1050,  1501,  1502,  1503,  1504,  1505,  1506,  1507,  1508,  1509,  1510
  1511,  1512,  1513,  1514,  1515,  1516,  1517,  1518,  1519,  1520,  1521,  1522,  1523,  1524,  1525,  1526
  1527,  1528,  1529,  1530,  1531,  1532,  1533,  1534,  1535,  1536,  1537,  1538,  1539,  1540,  1541,  1542
  1543,  1544,  1545,  1546,  1547,  1548,  1549,  1550,  2001,  2002,  2003,  2004,  2005,  2006,  2007,  2008
  2009,  2010,  2011,  2012,  2013,  2014,  2015,  2016,  2017,  2018,  2019,  2020,  2021,  2022,  2023,  2024
  2025,  2026,  2027,  2028,  2029,  2030,  2031,  2032,  2033,  2034,  2035,  2036,  2037,  2038,  2039,  2040
  2041,  2042,  2043,  2044,  2045,  2046,  2047,  2048,  2049,  2050,  2501,  2502,  2503,  2504,  2505,  2506
  2507,  2508,  2509,  2510,  2511,  2512,  2513,  2514,  2515,  2516,  2517,  2518,  2519,  2520,  2521,  2522
  2523,  2524,  2525,  2526,  2527,  2528,  2529,  2530,  2531,  2532,  2533,  2534,  2535,  2536,  2537,  2538
  2539,  2540,  2541,  2542,  2543,  2544,  2545,  2546,  2547,  2548,  2549,  2550,  3001,  3002,  3003,  3004
  3005,  3006,  3007,  3008,  3009,  3010,  3011,  3012,  3013,  3014,  3015,  3016,  3017,  3018,  3019,  3020
** ... 137 like lines cut
*Surface, type=ELEMENT, name=Surf-1
_Surf-1_S3, S3
*Elset, elset=_Surf-2_S1, internal, instance=Part-1-1, generate
 24501,  25000,      1
*Elset, elset=_Surf-2_S6, internal, instance=Part-1-1, generate
     1,  24951,     50
*Elset, elset=_Surf-2_S2, internal, instance=Part-1-1, generate
   1,  500,    1
*Elset, elset=_Surf-2_S4, internal, instance=Part-1-1, generate
    50,  25000,     50
*Elset, elset=_Surf-2_S5, internal, instance=Part-1-1
   451,   452,   453,   454,   455,   456,   457,   458,   459,   460,   461,   462,   463,   464,   465,   466
   467,   468,   469,   470,   471,   472,   473,   474,   475,   476,   477,   478,   479,   480,   481,   482
   483,   484,   485,   486,   487,   488,   489,   490,   491,   492,   493,   494,   495,   496,   497,   498
   499,   500,   951,   952,   953,   954,   955,   956,   957,   958,   959,   960,   961,   962,   963,   964
   965,   966,   967,   968,   969,   970,   971,   972,   973,   974,   975,   976,   977,   978,   979,   980
   981,   982,   983,   984,   985,   986,   987,   988,   989,   990,   991,   992,   993,   994,   995,   996
   997,   998,   999,  1000,  1451,  1452,  1453,  1454,  1455,  1456,  1457,  1458,  1459,  1460,  1461,  1462
  1463,  1464,  1465,  1466,  1467,  1468,  1469,  1470,  1471,  1472,  1473,  1474,  1475,  1476,  1477,  1478
  1479,  1480,  1481,  1482,  1483,  1484,  1485,  1486,  1487,  1488,  1489,  1490,  1491,  1492,  1493,  1494
  1495,  1496,  1497,  1498,  1499,  1500,  1951,  1952,  1953,  1954,  1955,  1956,  1957,  1958,  1959,  1960
  1961,  1962,  1963,  1964,  1965,  1966,  1967,  1968,  1969,  1970,  1971,  1972,  1973,  1974,  1975,  1976
  1977,  1978,  1979,  1980,  1981,  1982,  1983,  1984,  1985,  1986,  1987,  1988,  1989,  1990,  1991,  1992
  1993,  1994,  1995,  1996,  1997,  1998,  1999,  2000,  2451,  2452,  2453,  2454,  2455,  2456,  2457,  2458
  2459,  2460,  2461,  2462,  2463,  2464,  2465,  2466,  2467,  2468,  2469,  2470,  2471,  2472,  2473,  2474
  2475,  2476,  2477,  2478,  2479,  2480,  2481,  2482,  2483,  2484,  2485,  2486,  2487,  2488,  2489,  2490
  2491,  2492,  2493,  2494,  2495,  2496,  2497,  2498,  2499,  2500,  2951,  2952,  2953,  2954,  2955,  2956
  2957,  2958,  2959,  2960,  2961,  2962,  2963,  2964,  2965,  2966,  2967,  2968,  2969,  2970,  2971,  2972
  2973,  2974,  2975,  2976,  2977,  2978,  2979,  2980,  2981,  2982,  2983,  2984,  2985,  2986,  2987,  2988
  2989,  2990,  2991,  2992,  2993,  2994,  2995,  2996,  2997,  2998,  2999,  3000,  3451,  3452,  3453,  3454
  3455,  3456,  3457,  3458,  3459,  3460,  3461,  3462,  3463,  3464,  3465,  3466,  3467,  3468,  3469,  3470
** ... 137 like lines cut
*Surface, type=ELEMENT, name=Surf-2
_Surf-2_S1, S1
_Surf-2_S6, S6
_Surf-2_S2, S2
_Surf-2_S4, S4
_Surf-2_S5, S5
*End Assembly
** 
** MATERIALS
** 
*Material, name=AL
*Conductivity
205.,
*Density
2710.,
*Specific Heat
921.,
** 
** PREDEFINED FIELDS
** 
** Name: Predefined Field-1   Type: Temperature
*Initial Conditions, type=TEMPERATURE
Set-1, 298.
** ----------------------------------------------------------------
** 
** STEP: Step-1
** 
*Step, name=Step-1, nlgeom=NO
*Heat Transfer, end=PERIOD
1., 100., , ,
** 
** LOADS
** 
** Name: MOVING ,HF   Type: Surface heat flux
*Dsflux
Surf-1, SNU, 1.
** 
** INTERACTIONS
** 
** Interaction: Int-1
*Sfilm
Surf-2, F, 298., 20.
** 
** OUTPUT REQUESTS
** 
*Restart, write, frequency=0
** 
** FIELD OUTPUT: F-Output-1
** 
*Output, field, variable=PRESELECT
*Output, history, frequency=0
*End Step
